TITL CN-C3N4-hP126 99.9725 623.751212 -2.75622201E+004 0 0  126 (P63/m) n - 1
REM
REM Run started: Sat, 20 Jul 2024 12:06:40 +0100 in /home/cjp20/tmp/2d1dadbf4980e75b
REM CASTEP 25.1 from code version 325614284 default Fri Apr 19 14:02:46 2024 +0100
REM Functional PBE for solids (2008) Relativity Koelling-Harmon Dispersion off
REM Cut-off 340.0000 eV Grid scale 2.0000 Gmax 18.8933 1/A FBSC none
REM MP grid 1 1 7 Offset 0.000 0.000 0.000 No. kpts 4 Spacing 0.07
REM Total runtime: 231.64 s
REM Overall efficiency: 74 %
REM
REM ./CN.cell (c7c4848efb97fa6a0cc1405c8685c04c)
REM ## AIRSS Version 0.9.4 June 2023 commit v0.9.4-54-g857bfe0ee03d328fff
REM
REM
REM cmdline: crud.pl -mpinp 32 
REM
REM
REM N 2|1.4|13|15|17|20:21(qc=5)
REM C 2|1.4|8|9|10|20:21(qc=5)
REM 
CELL 1.54180   17.80452   17.80452    2.27206   90.00000   90.00000  120.00000
LATT -1
SFAC C  N  
C      1  0.7290367225518  0.1180493526106  0.2500000000000 1.0
C      1  0.2709632634482  0.8819506333894  0.7500000000000 1.0
C      1  0.8819506333894  0.6109873629412  0.2500000000000 1.0
C      1  0.1180493526106  0.3890126230588  0.7500000000000 1.0
C      1  0.3890126230588  0.2709632634482  0.2500000000000 1.0
C      1  0.6109873629412  0.7290367225518  0.7500000000000 1.0
C      1  0.7362436879752  0.2329831070810  0.7500000000000 1.0
C      1  0.2637562980248  0.7670168789190  0.2500000000000 1.0
C      1  0.7670168789190  0.5032605738942  0.7500000000000 1.0
C      1  0.2329831070810  0.4967394121058  0.2500000000000 1.0
C      1  0.4967394121058  0.2637562980248  0.7500000000000 1.0
C      1  0.5032605738942  0.7362436879752  0.2500000000000 1.0
C      1  0.7189238413123  0.9328151478380  0.2500000000000 1.0
C      1  0.2810761446877  0.0671848381621  0.7500000000000 1.0
C      1  0.0671848381621  0.7861086864743  0.2500000000000 1.0
C      1  0.9328151478380  0.2138912995257  0.7500000000000 1.0
C      1  0.2138912995257  0.2810761446877  0.2500000000000 1.0
C      1  0.7861086864743  0.7189238413123  0.7500000000000 1.0
C      1  0.8087445421319  0.0697737578260  0.7500000000000 1.0
C      1  0.1912554438681  0.9302262281740  0.2500000000000 1.0
C      1  0.9302262281740  0.7389707773059  0.7500000000000 1.0
C      1  0.0697737578260  0.2610292086941  0.2500000000000 1.0
C      1  0.2610292086941  0.1912554438681  0.7500000000000 1.0
C      1  0.7389707773059  0.8087445421319  0.2500000000000 1.0
C      1  0.7606231179131  0.3726719516093  0.7500000000000 1.0
C      1  0.2393768680869  0.6273280343907  0.2500000000000 1.0
C      1  0.6273280343907  0.3879511593039  0.7500000000000 1.0
C      1  0.3726719516093  0.6120488266961  0.2500000000000 1.0
C      1  0.6120488266961  0.2393768680869  0.7500000000000 1.0
C      1  0.3879511593039  0.7606231179131  0.2500000000000 1.0
C      1  0.5780172866954  0.8745706145444  0.7500000000000 1.0
C      1  0.4219826993046  0.1254293714556  0.2500000000000 1.0
C      1  0.1254293714556  0.7034466651510  0.7500000000000 1.0
C      1  0.8745706145444  0.2965533208491  0.2500000000000 1.0
C      1  0.2965533208491  0.4219826993046  0.7500000000000 1.0
C      1  0.7034466651510  0.5780172866954  0.2500000000000 1.0
C      1  0.9476188088974  0.0850126894008  0.7500000000000 1.0
C      1  0.0523811771027  0.9149872965992  0.2500000000000 1.0
C      1  0.9149872965992  0.8626061124966  0.7500000000000 1.0
C      1  0.0850126894008  0.1373938735034  0.2500000000000 1.0
C      1  0.1373938735034  0.0523811771027  0.7500000000000 1.0
C      1  0.8626061124966  0.9476188088974  0.2500000000000 1.0
C      1  0.6048687276759  0.0195067154628  0.7500000000000 1.0
C      1  0.3951312583242  0.9804932705372  0.2500000000000 1.0
C      1  0.9804932705372  0.5853620052130  0.7500000000000 1.0
C      1  0.0195067154628  0.4146379807870  0.2500000000000 1.0
C      1  0.4146379807870  0.3951312583242  0.7500000000000 1.0
C      1  0.5853620052130  0.6048687276759  0.2500000000000 1.0
C      1  0.4586809974314  0.9023966982719  0.7500000000000 1.0
C      1  0.5413189885686  0.0976032877281  0.2500000000000 1.0
C      1  0.0976032877281  0.5562842921595  0.7500000000000 1.0
C      1  0.9023966982719  0.4437156938405  0.2500000000000 1.0
C      1  0.4437156938405  0.5413189885686  0.7500000000000 1.0
C      1  0.5562842921595  0.4586809974314  0.2500000000000 1.0
N      2  0.5472014513961  0.9331202213889  0.7500000000000 1.0
N      2  0.4527985346039  0.0668797646111  0.2500000000000 1.0
N      2  0.0668797646111  0.6140812230072  0.7500000000000 1.0
N      2  0.9331202213889  0.3859187629928  0.2500000000000 1.0
N      2  0.3859187629928  0.4527985346039  0.7500000000000 1.0
N      2  0.6140812230072  0.5472014513961  0.2500000000000 1.0
N      2  0.7823365517853  0.0201056969480  0.2500000000000 1.0
N      2  0.2176634342147  0.9798942890520  0.7500000000000 1.0
N      2  0.9798942890520  0.7622308478373  0.2500000000000 1.0
N      2  0.0201056969480  0.2377691381627  0.7500000000000 1.0
N      2  0.2377691381627  0.2176634342147  0.2500000000000 1.0
N      2  0.7622308478373  0.7823365517853  0.7500000000000 1.0
N      2  0.5648835034478  0.0697136756933  0.7500000000000 1.0
N      2  0.4351164825522  0.9302863103067  0.2500000000000 1.0
N      2  0.9302863103067  0.4951698207544  0.7500000000000 1.0
N      2  0.0697136756933  0.5048301652456  0.2500000000000 1.0
N      2  0.5048301652456  0.4351164825522  0.7500000000000 1.0
N      2  0.4951698207544  0.5648835034478  0.2500000000000 1.0
N      2  0.4202045983667  0.8120140624546  0.7500000000000 1.0
N      2  0.5797953876333  0.1879859235454  0.2500000000000 1.0
N      2  0.1879859235454  0.6081905289121  0.7500000000000 1.0
N      2  0.8120140624546  0.3918094570879  0.2500000000000 1.0
N      2  0.3918094570879  0.5797953876333  0.7500000000000 1.0
N      2  0.6081905289121  0.4202045983667  0.2500000000000 1.0
N      2  0.9968023599842  0.1049323819765  0.2500000000000 1.0
N      2  0.0031976260158  0.8950676040235  0.7500000000000 1.0
N      2  0.8950676040235  0.8918699710077  0.2500000000000 1.0
N      2  0.1049323819765  0.1081300149923  0.7500000000000 1.0
N      2  0.1081300149923  0.0031976260158  0.2500000000000 1.0
N      2  0.8918699710077  0.9968023599842  0.7500000000000 1.0
N      2  0.7011091441788  0.2855946333162  0.7500000000000 1.0
N      2  0.2988908418212  0.7144053526838  0.2500000000000 1.0
N      2  0.7144053526838  0.4155145038626  0.7500000000000 1.0
N      2  0.2855946333162  0.5844854821374  0.2500000000000 1.0
N      2  0.5844854821374  0.2988908418212  0.7500000000000 1.0
N      2  0.4155145038626  0.7011091441788  0.2500000000000 1.0
N      2  0.8963306039560  0.1242505789888  0.7500000000000 1.0
N      2  0.1036693820440  0.8757494070112  0.2500000000000 1.0
N      2  0.8757494070112  0.7720800179671  0.7500000000000 1.0
N      2  0.1242505789888  0.2279199680329  0.2500000000000 1.0
N      2  0.2279199680329  0.1036693820440  0.7500000000000 1.0
N      2  0.7720800179671  0.8963306039560  0.2500000000000 1.0
N      2  0.6683493157040  0.9140311804752  0.7500000000000 1.0
N      2  0.3316506702960  0.0859688055248  0.2500000000000 1.0
N      2  0.0859688055248  0.7543181282288  0.7500000000000 1.0
N      2  0.9140311804752  0.2456818577712  0.2500000000000 1.0
N      2  0.2456818577712  0.3316506702960  0.7500000000000 1.0
N      2  0.7543181282288  0.6683493157040  0.2500000000000 1.0
N      2  0.6561958557196  0.0360060085610  0.2500000000000 1.0
N      2  0.3438041302804  0.9639939774390  0.7500000000000 1.0
N      2  0.9639939774390  0.6201898401586  0.2500000000000 1.0
N      2  0.0360060085610  0.3798101458414  0.7500000000000 1.0
N      2  0.3798101458414  0.3438041302804  0.2500000000000 1.0
N      2  0.6201898401586  0.6561958557196  0.7500000000000 1.0
N      2  0.7064238483805  0.1811876137174  0.2500000000000 1.0
N      2  0.2935761376195  0.8188123722826  0.7500000000000 1.0
N      2  0.8188123722826  0.5252362276631  0.2500000000000 1.0
N      2  0.1811876137174  0.4747637583369  0.7500000000000 1.0
N      2  0.4747637583369  0.2935761376195  0.2500000000000 1.0
N      2  0.5252362276631  0.7064238483805  0.7500000000000 1.0
N      2  0.7771411129118  0.1276975708092  0.7500000000000 1.0
N      2  0.2228588730883  0.8723024151908  0.2500000000000 1.0
N      2  0.8723024151908  0.6494435351025  0.7500000000000 1.0
N      2  0.1276975708092  0.3505564508975  0.2500000000000 1.0
N      2  0.3505564508975  0.2228588730883  0.7500000000000 1.0
N      2  0.6494435351025  0.7771411129118  0.2500000000000 1.0
N      2  0.5459689928091  0.8249565049452  0.2500000000000 1.0
N      2  0.4540309931910  0.1750434810548  0.7500000000000 1.0
N      2  0.1750434810548  0.7210124808638  0.2500000000000 1.0
N      2  0.8249565049452  0.2789875051362  0.7500000000000 1.0
N      2  0.2789875051362  0.4540309931910  0.2500000000000 1.0
N      2  0.7210124808638  0.5459689928091  0.7500000000000 1.0
END
