TITL CN-C3N4-Pmc21 10.0284 164.218677 -6.21475306E+003 0 0  28 (Pmc21) n - 1
REM
REM Run started: Sun, 11 Dec 2022 07:25:28 +0000 in /home/cjp20/work/RUNS/C+N/Collection-10GPa
REM CASTEP 23.1 from code version cc2e18ef9+ default Thu Jul 28 11:21:37 2022 +0100
REM Functional Perdew Burke Ernzerhof Relativity Koelling-Harmon Dispersion off
REM Cut-off 340.0000 eV Grid scale 2.0000 Gmax 21.7273 1/A FBSC none
REM MP grid 3 4 2 Offset 0.000 0.000 0.000 No. kpts 4 Spacing 0.07
REM Total runtime: 16.64 s
REM Overall efficiency: 49 %
REM
REM CN.cell (b662ebcd09bf50b0831ce801b38bd2f0)
REM ## AIRSS Version 0.9.3 July 2022 commit v0.9.3-18-g5294a7aa48ea7b6e19
REM
REM
REM cmdline: crud.pl -mpinp 32 
REM
REM
REM N 2|1.4|13|15|17|20:21(qc=5)
REM C 2|1.4|8|9|10|20:21(qc=5)
REM 
CELL 1.54180    4.87669    4.21563    7.98794   90.00000   90.00000   90.00000
LATT -1
SFAC C  N  
C      1  0.2504982354978  0.3333622791191  0.9352719464109 1.0
C      1  0.2511742060573  0.0005589992173  0.6847660908454 1.0
C      1 -0.2504982354978 -0.3333622791191  1.4352719464109 1.0
C      1 -0.2511742060573 -0.0005589992173  1.1847660908454 1.0
C      1  0.2504982354978 -0.3333622791191  1.4352719464109 1.0
C      1  0.2511742060573 -0.0005589992173  1.1847660908454 1.0
C      1 -0.2504982354978  0.3333622791191  0.9352719464109 1.0
C      1 -0.2511742060573  0.0005589992173  0.6847660908454 1.0
C      1  0.5000000000000  0.4971066647367  0.1868567138277 1.0
C      1 -0.5000000000000 -0.4971066647367  0.6868567138277 1.0
C      1  1.0000000000000  0.8426832323280  0.9324317369812 1.0
C      1 -1.0000000000000 -0.8426832323280  1.4324317369812 1.0
N      2  0.7656591084061  2.0090256876937  0.8663376976653 1.0
N      2  0.7314885731484  0.6785491212119  0.6223334101967 1.0
N      2 -0.7656591084061 -2.0090256876937  1.3663376976653 1.0
N      2 -0.7314885731484 -0.6785491212119  1.1223334101967 1.0
N      2  0.7656591084061 -2.0090256876937  1.3663376976653 1.0
N      2  0.7314885731484 -0.6785491212119  1.1223334101967 1.0
N      2 -0.7656591084061  2.0090256876937  0.8663376976653 1.0
N      2 -0.7314885731484  0.6785491212119  0.6223334101967 1.0
N      2  0.5000000000000  0.5146732851965  0.3705877793608 1.0
N      2  0.5000000000000  0.1773389377935  0.6324814309101 1.0
N      2 -0.5000000000000 -0.5146732851965  0.8705877793608 1.0
N      2 -0.5000000000000 -0.1773389377935  1.1324814309101 1.0
N      2  1.0000000000000  0.5099303951377  0.8857885844942 1.0
N      2  1.0000000000000  0.1287414669154  0.6115464641894 1.0
N      2 -1.0000000000000 -0.5099303951377  1.3857885844942 1.0
N      2 -1.0000000000000 -0.1287414669154  1.1115464641894 1.0
END
