TITL CN-C3N4-P64 10.0023 212.494230 -4.66162665E+003 0 0  21 (P64) n - 1
REM
REM Run started: Sun, 11 Dec 2022 07:25:37 +0000 in /home/cjp20/work/RUNS/C+N/Collection-10GPa
REM CASTEP 23.1 from code version cc2e18ef9+ default Thu Jul 28 11:21:37 2022 +0100
REM Functional Perdew Burke Ernzerhof Relativity Koelling-Harmon Dispersion off
REM Cut-off 340.0000 eV Grid scale 2.0000 Gmax 21.7273 1/A FBSC none
REM MP grid 4 4 2 Offset 0.000 0.000 0.000 No. kpts 8 Spacing 0.07
REM Total runtime: 19.11 s
REM Overall efficiency: 58 %
REM
REM CN.cell (b662ebcd09bf50b0831ce801b38bd2f0)
REM ## AIRSS Version 0.9.3 July 2022 commit v0.9.3-18-g5294a7aa48ea7b6e19
REM
REM
REM cmdline: crud.pl -mpinp 32 
REM
REM
REM N 2|1.4|13|15|17|20:21(qc=5)
REM C 2|1.4|8|9|10|20:21(qc=5)
REM 
CELL 1.54180    4.54814    4.54814   11.86173   90.00000   90.00000  120.00000
LATT -1
SFAC C  N  
C      1  0.5358183419374 -0.2212020611670 -0.0650377351615 1.0
C      1  0.2212040611666  0.7570214031042  0.2682955981718 1.0
C      1 -0.7570194031046 -0.5358163419378  0.6016289315052 1.0
C      1 -0.5358163419378  0.2212040611666 -0.0650377351615 1.0
C      1 -0.2212020611670 -0.7570194031046  0.2682955981718 1.0
C      1  0.7570214031042  0.5358183419374  0.6016289315052 1.0
C      1  0.5000009999998  0.0000009999998  0.0939800399617 1.0
C      1  0.0000009999998  0.5000009999998  0.4273133732950 1.0
C      1 -0.4999990000002 -0.4999990000002  0.7606467066283 1.0
N      2  0.3948549793648  0.1914545842924  0.0452840608367 1.0
N      2 -0.1914525842928  0.2034013950722  0.3786173941700 1.0
N      2 -0.2033993950726 -0.3948529793652  0.7119507275033 1.0
N      2 -0.3948529793652 -0.1914525842928  0.0452840608367 1.0
N      2  0.1914545842924 -0.2033993950726  0.3786173941700 1.0
N      2  0.2034013950722  0.3948549793648  0.7119507275033 1.0
N      2  0.5000009999998  0.0000009999998 -0.1280796820944 1.0
N      2  0.5000009999998  0.0000009999998  0.2134196574491 1.0
N      2  0.0000009999998  0.5000009999998  0.2052536512389 1.0
N      2  0.0000009999998  0.5000009999998  0.5467529907824 1.0
N      2 -0.4999990000002 -0.4999990000002  0.5385869845723 1.0
N      2 -0.4999990000002 -0.4999990000002  0.8800863241157 1.0
END
