TITL CN-C3N4-R3m 10.0493 162.952299 -4.66175524E+003 0 0  21 (R3m) n - 1
REM
REM Run started: Sun, 11 Dec 2022 07:25:26 +0000 in /home/cjp20/work/RUNS/C+N/Collection-10GPa
REM CASTEP 23.1 from code version cc2e18ef9+ default Thu Jul 28 11:21:37 2022 +0100
REM Functional Perdew Burke Ernzerhof Relativity Koelling-Harmon Dispersion off
REM Cut-off 340.0000 eV Grid scale 2.0000 Gmax 21.7273 1/A FBSC none
REM MP grid 4 4 2 Offset 0.000 0.000 0.000 No. kpts 10 Spacing 0.07
REM Total runtime: 36.14 s
REM Overall efficiency: 69 %
REM
REM CN.cell (b662ebcd09bf50b0831ce801b38bd2f0)
REM ## AIRSS Version 0.9.3 July 2022 commit v0.9.3-18-g5294a7aa48ea7b6e19
REM
REM
REM cmdline: crud.pl -mpinp 32 
REM
REM
REM N 2|1.4|13|15|17|20:21(qc=5)
REM C 2|1.4|8|9|10|20:21(qc=5)
REM 
CELL 1.54180    4.73052    4.73052    8.40838   90.00000   90.00000  120.00000
LATT -1
SFAC C  N  
C      1  0.3156803305777  0.1578403319555  0.6669448476842 1.0
C      1  0.9823469972443  0.4911736652888  1.0002781810175 1.0
C      1  0.6490136639110  0.8245069986222  1.3336115143508 1.0
C      1 -0.1578403319555  0.1578403319555  0.6669448476842 1.0
C      1  0.5088263347112  0.4911736652888  1.0002781810175 1.0
C      1  0.1754930013778  0.8245069986222  1.3336115143508 1.0
C      1 -0.1578403319555 -0.3156803305777  0.6669448476842 1.0
C      1  0.5088263347112  0.0176530027557  1.0002781810175 1.0
C      1  0.1754930013778  0.3509863360890  1.3336115143508 1.0
N      2 -0.3289371488340 -0.1644684077503  0.6668028890665 1.0
N      2  0.3377295178327  0.1688649255830  1.0001362223999 1.0
N      2  0.0043961844994  0.5021982589164  1.3334695557332 1.0
N      2  0.1644684077503 -0.1644684077503  0.6668028890665 1.0
N      2  0.8311350744170  0.1688649255830  1.0001362223999 1.0
N      2  0.4978017410836  0.5021982589164  1.3334695557332 1.0
N      2  0.1644684077503  0.3289371488340  0.6668028890665 1.0
N      2  0.8311350744170  0.6622704821673  1.0001362223999 1.0
N      2  0.4978017410836  0.9956038155006  1.3334695557332 1.0
N      2 -0.0000001111111  0.0000001111111  0.3337561230812 1.0
N      2  0.6666665555556  0.3333334444444  0.6670894564146 1.0
N      2  0.3333332222222  0.6666667777778  1.0004227897479 1.0
END
